Network_data/Network_model/Feeder2/OpenDSS_Loads.txt
New Load.Feeder2_LOAD1 Phases=1 Bus1=Feeder2_46.1 kV=0.23094 kW=0 Kvar=0 Model=8 Vminpu=0.8 Vmaxpu=1.2 ZIPV=[0 0 1 0 0 1 0.8]
New Load.Feeder2_LOAD2 Phases=1 Bus1=Feeder2_48.2 kV=0.23094 kW=0 Kvar=0 Model=8 Vminpu=0.8 Vmaxpu=1.2 ZIPV=[0 0 1 0 0 1 0.8]
New Load.Feeder2_LOAD3 Phases=1 Bus1=Feeder2_52.3 kV=0.23094 kW=0 Kvar=0 Model=8 Vminpu=0.8 Vmaxpu=1.2 ZIPV=[0 0 1 0 0 1 0.8]
New Load.Feeder2_LOAD4 Phases=1 Bus1=Feeder2_69.1 kV=0.23094 kW=0 Kvar=0 Model=8 Vminpu=0.8 Vmaxpu=1.2 ZIPV=[0 0 1 0 0 1 0.8]
New Load.Feeder2_LOAD5 Phases=1 Bus1=Feeder2_72.2 kV=0.23094 kW=0 Kvar=0 Model=8 Vminpu=0.8 Vmaxpu=1.2 ZIPV=[0 0 1 0 0 1 0.8]
New Load.Feeder2_LOAD6 Phases=1 Bus1=Feeder2_74.3 kV=0.23094 kW=0 Kvar=0 Model=8 Vminpu=0.8 Vmaxpu=1.2 ZIPV=[0 0 1 0 0 1 0.8]
New Load.Feeder2_LOAD7 Phases=1 Bus1=Feeder2_79.1 kV=0.23094 kW=0 Kvar=0 Model=8 Vminpu=0.8 Vmaxpu=1.2 ZIPV=[0 0 1 0 0 1 0.8]
New Load.Feeder2_LOAD8 Phases=1 Bus1=Feeder2_82.2 kV=0.23094 kW=0 Kvar=0 Model=8 Vminpu=0.8 Vmaxpu=1.2 ZIPV=[0 0 1 0 0 1 0.8]
New Load.Feeder2_LOAD9 Phases=1 Bus1=Feeder2_119.3 kV=0.23094 kW=0 Kvar=0 Model=8 Vminpu=0.8 Vmaxpu=1.2 ZIPV=[0 0 1 0 0 1 0.8]
New Load.Feeder2_LOAD10 Phases=1 Bus1=Feeder2_248.3 kV=0.23094 kW=0 Kvar=0 Model=8 Vminpu=0.8 Vmaxpu=1.2 ZIPV=[0 0 1 0 0 1 0.8]
New Load.Feeder2_LOAD11 Phases=1 Bus1=Feeder2_275.3 kV=0.23094 kW=0 Kvar=0 Model=8 Vminpu=0.8 Vmaxpu=1.2 ZIPV=[0 0 1 0 0 1 0.8]
New Load.Feeder2_LOAD12 Phases=1 Bus1=Feeder2_282.2 kV=0.23094 kW=0 Kvar=0 Model=8 Vminpu=0.8 Vmaxpu=1.2 ZIPV=[0 0 1 0 0 1 0.8]
New Load.Feeder2_LOAD13 Phases=1 Bus1=Feeder2_295.1 kV=0.23094 kW=0 Kvar=0 Model=8 Vminpu=0.8 Vmaxpu=1.2 ZIPV=[0 0 1 0 0 1 0.8]
New Load.Feeder2_LOAD14 Phases=1 Bus1=Feeder2_311.1 kV=0.23094 kW=0 Kvar=0 Model=8 Vminpu=0.8 Vmaxpu=1.2 ZIPV=[0 0 1 0 0 1 0.8]
New Load.Feeder2_LOAD15 Phases=1 Bus1=Feeder2_314.2 kV=0.23094 kW=0 Kvar=0 Model=8 Vminpu=0.8 Vmaxpu=1.2 ZIPV=[0 0 1 0 0 1 0.8]
New Load.Feeder2_LOAD16 Phases=1 Bus1=Feeder2_451.2 kV=0.23094 kW=0 Kvar=0 Model=8 Vminpu=0.8 Vmaxpu=1.2 ZIPV=[0 0 1 0 0 1 0.8]
New Load.Feeder2_LOAD17 Phases=1 Bus1=Feeder2_518.2 kV=0.23094 kW=0 Kvar=0 Model=8 Vminpu=0.8 Vmaxpu=1.2 ZIPV=[0 0 1 0 0 1 0.8]
New Load.Feeder2_LOAD18 Phases=1 Bus1=Feeder2_594.3 kV=0.23094 kW=0 Kvar=0 Model=8 Vminpu=0.8 Vmaxpu=1.2 ZIPV=[0 0 1 0 0 1 0.8]
New Load.Feeder2_LOAD19 Phases=1 Bus1=Feeder2_611.3 kV=0.23094 kW=0 Kvar=0 Model=8 Vminpu=0.8 Vmaxpu=1.2 ZIPV=[0 0 1 0 0 1 0.8]
New Load.Feeder2_LOAD20 Phases=1 Bus1=Feeder2_621.1 kV=0.23094 kW=0 Kvar=0 Model=8 Vminpu=0.8 Vmaxpu=1.2 ZIPV=[0 0 1 0 0 1 0.8]
New Load.Feeder2_LOAD21 Phases=1 Bus1=Feeder2_622.1 kV=0.23094 kW=0 Kvar=0 Model=8 Vminpu=0.8 Vmaxpu=1.2 ZIPV=[0 0 1 0 0 1 0.8]
New Load.Feeder2_LOAD22 Phases=1 Bus1=Feeder2_651.1 kV=0.23094 kW=0 Kvar=0 Model=8 Vminpu=0.8 Vmaxpu=1.2 ZIPV=[0 0 1 0 0 1 0.8]
New Load.Feeder2_LOAD23 Phases=1 Bus1=Feeder2_653.3 kV=0.23094 kW=0 Kvar=0 Model=8 Vminpu=0.8 Vmaxpu=1.2 ZIPV=[0 0 1 0 0 1 0.8]
New Load.Feeder2_LOAD24 Phases=1 Bus1=Feeder2_663.1 kV=0.23094 kW=0 Kvar=0 Model=8 Vminpu=0.8 Vmaxpu=1.2 ZIPV=[0 0 1 0 0 1 0.8]
New Load.Feeder2_LOAD25 Phases=1 Bus1=Feeder2_681.3 kV=0.23094 kW=0 Kvar=0 Model=8 Vminpu=0.8 Vmaxpu=1.2 ZIPV=[0 0 1 0 0 1 0.8]
New Load.Feeder2_LOAD26 Phases=1 Bus1=Feeder2_682.3 kV=0.23094 kW=0 Kvar=0 Model=8 Vminpu=0.8 Vmaxpu=1.2 ZIPV=[0 0 1 0 0 1 0.8]
New Load.Feeder2_LOAD27 Phases=1 Bus1=Feeder2_702.2 kV=0.23094 kW=0 Kvar=0 Model=8 Vminpu=0.8 Vmaxpu=1.2 ZIPV=[0 0 1 0 0 1 0.8]
New Load.Feeder2_LOAD28 Phases=1 Bus1=Feeder2_703.1 kV=0.23094 kW=0 Kvar=0 Model=8 Vminpu=0.8 Vmaxpu=1.2 ZIPV=[0 0 1 0 0 1 0.8]
New Load.Feeder2_LOAD29 Phases=1 Bus1=Feeder2_704.1 kV=0.23094 kW=0 Kvar=0 Model=8 Vminpu=0.8 Vmaxpu=1.2 ZIPV=[0 0 1 0 0 1 0.8]
New Load.Feeder2_LOAD30 Phases=1 Bus1=Feeder2_732.3 kV=0.23094 kW=0 Kvar=0 Model=8 Vminpu=0.8 Vmaxpu=1.2 ZIPV=[0 0 1 0 0 1 0.8]
New Load.Feeder2_LOAD31 Phases=1 Bus1=Feeder2_754.2 kV=0.23094 kW=0 Kvar=0 Model=8 Vminpu=0.8 Vmaxpu=1.2 ZIPV=[0 0 1 0 0 1 0.8]
New Load.Feeder2_LOAD32 Phases=1 Bus1=Feeder2_759.2 kV=0.23094 kW=0 Kvar=0 Model=8 Vminpu=0.8 Vmaxpu=1.2 ZIPV=[0 0 1 0 0 1 0.8]
New Load.Feeder2_LOAD33 Phases=1 Bus1=Feeder2_788.2 kV=0.23094 kW=0 Kvar=0 Model=8 Vminpu=0.8 Vmaxpu=1.2 ZIPV=[0 0 1 0 0 1 0.8]
New Load.Feeder2_LOAD34 Phases=1 Bus1=Feeder2_828.3 kV=0.23094 kW=0 Kvar=0 Model=8 Vminpu=0.8 Vmaxpu=1.2 ZIPV=[0 0 1 0 0 1 0.8]
New Load.Feeder2_LOAD35 Phases=1 Bus1=Feeder2_836.1 kV=0.23094 kW=0 Kvar=0 Model=8 Vminpu=0.8 Vmaxpu=1.2 ZIPV=[0 0 1 0 0 1 0.8]
New Load.Feeder2_LOAD36 Phases=1 Bus1=Feeder2_842.1 kV=0.23094 kW=0 Kvar=0 Model=8 Vminpu=0.8 Vmaxpu=1.2 ZIPV=[0 0 1 0 0 1 0.8]
New Load.Feeder2_LOAD37 Phases=1 Bus1=Feeder2_846.3 kV=0.23094 kW=0 Kvar=0 Model=8 Vminpu=0.8 Vmaxpu=1.2 ZIPV=[0 0 1 0 0 1 0.8]
New Load.Feeder2_LOAD38 Phases=1 Bus1=Feeder2_868.2 kV=0.23094 kW=0 Kvar=0 Model=8 Vminpu=0.8 Vmaxpu=1.2 ZIPV=[0 0 1 0 0 1 0.8]
New Load.Feeder2_LOAD39 Phases=1 Bus1=Feeder2_911.2 kV=0.23094 kW=0 Kvar=0 Model=8 Vminpu=0.8 Vmaxpu=1.2 ZIPV=[0 0 1 0 0 1 0.8]
New Load.Feeder2_LOAD40 Phases=1 Bus1=Feeder2_947.2 kV=0.23094 kW=0 Kvar=0 Model=8 Vminpu=0.8 Vmaxpu=1.2 ZIPV=[0 0 1 0 0 1 0.8]
New Load.Feeder2_LOAD41 Phases=1 Bus1=Feeder2_1113.2 kV=0.23094 kW=0 Kvar=0 Model=8 Vminpu=0.8 Vmaxpu=1.2 ZIPV=[0 0 1 0 0 1 0.8]
New Load.Feeder2_LOAD42 Phases=1 Bus1=Feeder2_1124.1 kV=0.23094 kW=0 Kvar=0 Model=8 Vminpu=0.8 Vmaxpu=1.2 ZIPV=[0 0 1 0 0 1 0.8]
New Load.Feeder2_LOAD43 Phases=1 Bus1=Feeder2_1128.3 kV=0.23094 kW=0 Kvar=0 Model=8 Vminpu=0.8 Vmaxpu=1.2 ZIPV=[0 0 1 0 0 1 0.8]
New Load.Feeder2_LOAD44 Phases=1 Bus1=Feeder2_1143.2 kV=0.23094 kW=0 Kvar=0 Model=8 Vminpu=0.8 Vmaxpu=1.2 ZIPV=[0 0 1 0 0 1 0.8]
New Load.Feeder2_LOAD45 Phases=1 Bus1=Feeder2_1146.2 kV=0.23094 kW=0 Kvar=0 Model=8 Vminpu=0.8 Vmaxpu=1.2 ZIPV=[0 0 1 0 0 1 0.8]
New Load.Feeder2_LOAD46 Phases=1 Bus1=Feeder2_1158.1 kV=0.23094 kW=0 Kvar=0 Model=8 Vminpu=0.8 Vmaxpu=1.2 ZIPV=[0 0 1 0 0 1 0.8]
New Load.Feeder2_LOAD47 Phases=1 Bus1=Feeder2_1176.1 kV=0.23094 kW=0 Kvar=0 Model=8 Vminpu=0.8 Vmaxpu=1.2 ZIPV=[0 0 1 0 0 1 0.8]
New Load.Feeder2_LOAD48 Phases=1 Bus1=Feeder2_1196.3 kV=0.23094 kW=0 Kvar=0 Model=8 Vminpu=0.8 Vmaxpu=1.2 ZIPV=[0 0 1 0 0 1 0.8]
New Load.Feeder2_LOAD49 Phases=1 Bus1=Feeder2_1239.3 kV=0.23094 kW=0 Kvar=0 Model=8 Vminpu=0.8 Vmaxpu=1.2 ZIPV=[0 0 1 0 0 1 0.8]
New Load.Feeder2_LOAD50 Phases=1 Bus1=Feeder2_1248.1 kV=0.23094 kW=0 Kvar=0 Model=8 Vminpu=0.8 Vmaxpu=1.2 ZIPV=[0 0 1 0 0 1 0.8]
New Load.Feeder2_LOAD51 Phases=1 Bus1=Feeder2_1249.2 kV=0.23094 kW=0 Kvar=0 Model=8 Vminpu=0.8 Vmaxpu=1.2 ZIPV=[0 0 1 0 0 1 0.8]
New Load.Feeder2_LOAD52 Phases=1 Bus1=Feeder2_1250.2 kV=0.23094 kW=0 Kvar=0 Model=8 Vminpu=0.8 Vmaxpu=1.2 ZIPV=[0 0 1 0 0 1 0.8]
New Load.Feeder2_LOAD53 Phases=1 Bus1=Feeder2_1258.1 kV=0.23094 kW=0 Kvar=0 Model=8 Vminpu=0.8 Vmaxpu=1.2 ZIPV=[0 0 1 0 0 1 0.8]
New Load.Feeder2_LOAD54 Phases=1 Bus1=Feeder2_1266.1 kV=0.23094 kW=0 Kvar=0 Model=8 Vminpu=0.8 Vmaxpu=1.2 ZIPV=[0 0 1 0 0 1 0.8]
New Load.Feeder2_LOAD55 Phases=1 Bus1=Feeder2_1303.2 kV=0.23094 kW=0 Kvar=0 Model=8 Vminpu=0.8 Vmaxpu=1.2 ZIPV=[0 0 1 0 0 1 0.8]
New Load.Feeder2_LOAD56 Phases=1 Bus1=Feeder2_1304.3 kV=0.23094 kW=0 Kvar=0 Model=8 Vminpu=0.8 Vmaxpu=1.2 ZIPV=[0 0 1 0 0 1 0.8]
New Load.Feeder2_LOAD57 Phases=1 Bus1=Feeder2_1311.2 kV=0.23094 kW=0 Kvar=0 Model=8 Vminpu=0.8 Vmaxpu=1.2 ZIPV=[0 0 1 0 0 1 0.8]
New Load.Feeder2_LOAD58 Phases=1 Bus1=Feeder2_1366.1 kV=0.23094 kW=0 Kvar=0 Model=8 Vminpu=0.8 Vmaxpu=1.2 ZIPV=[0 0 1 0 0 1 0.8]
New Load.Feeder2_LOAD59 Phases=1 Bus1=Feeder2_1372.2 kV=0.23094 kW=0 Kvar=0 Model=8 Vminpu=0.8 Vmaxpu=1.2 ZIPV=[0 0 1 0 0 1 0.8]
New Load.Feeder2_LOAD60 Phases=1 Bus1=Feeder2_1428.3 kV=0.23094 kW=0 Kvar=0 Model=8 Vminpu=0.8 Vmaxpu=1.2 ZIPV=[0 0 1 0 0 1 0.8]
New Load.Feeder2_LOAD61 Phases=1 Bus1=Feeder2_1446.2 kV=0.23094 kW=0 Kvar=0 Model=8 Vminpu=0.8 Vmaxpu=1.2 ZIPV=[0 0 1 0 0 1 0.8]
New Load.Feeder2_LOAD62 Phases=1 Bus1=Feeder2_1530.2 kV=0.23094 kW=0 Kvar=0 Model=8 Vminpu=0.8 Vmaxpu=1.2 ZIPV=[0 0 1 0 0 1 0.8]
New Load.Feeder2_LOAD63 Phases=1 Bus1=Feeder2_1550.2 kV=0.23094 kW=0 Kvar=0 Model=8 Vminpu=0.8 Vmaxpu=1.2 ZIPV=[0 0 1 0 0 1 0.8]
New Load.Feeder2_LOAD64 Phases=1 Bus1=Feeder2_1551.3 kV=0.23094 kW=0 Kvar=0 Model=8 Vminpu=0.8 Vmaxpu=1.2 ZIPV=[0 0 1 0 0 1 0.8]
New Load.Feeder2_LOAD65 Phases=1 Bus1=Feeder2_1552.3 kV=0.23094 kW=0 Kvar=0 Model=8 Vminpu=0.8 Vmaxpu=1.2 ZIPV=[0 0 1 0 0 1 0.8]
New Load.Feeder2_LOAD66 Phases=1 Bus1=Feeder2_1553.3 kV=0.23094 kW=0 Kvar=0 Model=8 Vminpu=0.8 Vmaxpu=1.2 ZIPV=[0 0 1 0 0 1 0.8]
New Load.Feeder2_LOAD67 Phases=1 Bus1=Feeder2_1564.3 kV=0.23094 kW=0 Kvar=0 Model=8 Vminpu=0.8 Vmaxpu=1.2 ZIPV=[0 0 1 0 0 1 0.8]
New Load.Feeder2_LOAD68 Phases=1 Bus1=Feeder2_1589.3 kV=0.23094 kW=0 Kvar=0 Model=8 Vminpu=0.8 Vmaxpu=1.2 ZIPV=[0 0 1 0 0 1 0.8]
New Load.Feeder2_LOAD69 Phases=1 Bus1=Feeder2_1621.1 kV=0.23094 kW=0 Kvar=0 Model=8 Vminpu=0.8 Vmaxpu=1.2 ZIPV=[0 0 1 0 0 1 0.8]
New Load.Feeder2_LOAD70 Phases=1 Bus1=Feeder2_1628.2 kV=0.23094 kW=0 Kvar=0 Model=8 Vminpu=0.8 Vmaxpu=1.2 ZIPV=[0 0 1 0 0 1 0.8]
New Load.Feeder2_LOAD71 Phases=1 Bus1=Feeder2_1645.3 kV=0.23094 kW=0 Kvar=0 Model=8 Vminpu=0.8 Vmaxpu=1.2 ZIPV=[0 0 1 0 0 1 0.8]
New Load.Feeder2_LOAD72 Phases=1 Bus1=Feeder2_1657.2 kV=0.23094 kW=0 Kvar=0 Model=8 Vminpu=0.8 Vmaxpu=1.2 ZIPV=[0 0 1 0 0 1 0.8]
New Load.Feeder2_LOAD73 Phases=1 Bus1=Feeder2_1704.1 kV=0.23094 kW=0 Kvar=0 Model=8 Vminpu=0.8 Vmaxpu=1.2 ZIPV=[0 0 1 0 0 1 0.8]
New Load.Feeder2_LOAD74 Phases=1 Bus1=Feeder2_1716.1 kV=0.23094 kW=0 Kvar=0 Model=8 Vminpu=0.8 Vmaxpu=1.2 ZIPV=[0 0 1 0 0 1 0.8]
New Load.Feeder2_LOAD75 Phases=1 Bus1=Feeder2_1753.2 kV=0.23094 kW=0 Kvar=0 Model=8 Vminpu=0.8 Vmaxpu=1.2 ZIPV=[0 0 1 0 0 1 0.8]
New Load.Feeder2_LOAD76 Phases=1 Bus1=Feeder2_1754.2 kV=0.23094 kW=0 Kvar=0 Model=8 Vminpu=0.8 Vmaxpu=1.2 ZIPV=[0 0 1 0 0 1 0.8]
New Load.Feeder2_LOAD77 Phases=1 Bus1=Feeder2_1756.2 kV=0.23094 kW=0 Kvar=0 Model=8 Vminpu=0.8 Vmaxpu=1.2 ZIPV=[0 0 1 0 0 1 0.8]
New Load.Feeder2_LOAD78 Phases=1 Bus1=Feeder2_1765.1 kV=0.23094 kW=0 Kvar=0 Model=8 Vminpu=0.8 Vmaxpu=1.2 ZIPV=[0 0 1 0 0 1 0.8]
New Load.Feeder2_LOAD79 Phases=1 Bus1=Feeder2_1779.1 kV=0.23094 kW=0 Kvar=0 Model=8 Vminpu=0.8 Vmaxpu=1.2 ZIPV=[0 0 1 0 0 1 0.8]
New Load.Feeder2_LOAD80 Phases=1 Bus1=Feeder2_1800.3 kV=0.23094 kW=0 Kvar=0 Model=8 Vminpu=0.8 Vmaxpu=1.2 ZIPV=[0 0 1 0 0 1 0.8]
New Load.Feeder2_LOAD81 Phases=1 Bus1=Feeder2_1816.1 kV=0.23094 kW=0 Kvar=0 Model=8 Vminpu=0.8 Vmaxpu=1.2 ZIPV=[0 0 1 0 0 1 0.8]
New Load.Feeder2_LOAD82 Phases=1 Bus1=Feeder2_1817.3 kV=0.23094 kW=0 Kvar=0 Model=8 Vminpu=0.8 Vmaxpu=1.2 ZIPV=[0 0 1 0 0 1 0.8]
New Load.Feeder2_LOAD83 Phases=1 Bus1=Feeder2_1818.1 kV=0.23094 kW=0 Kvar=0 Model=8 Vminpu=0.8 Vmaxpu=1.2 ZIPV=[0 0 1 0 0 1 0.8]
